*SPEF "IEEE 1481-1998"
*DESIGN "myiir"
*DATE "Wed Nov  4 15:19:08 2020"
*VENDOR "Cadence Design Systems, Inc."
*PROGRAM "Innovus"
*VERSION "17.11-s080_1"
*DESIGN_FLOW "COUPLING C" "PIN_CAP NONE" "NAME_SCOPE LOCAL"
*DIVIDER /
*DELIMITER :
*BUS_DELIMITER []
*T_UNIT 1 NS
*C_UNIT 1 PF
*R_UNIT 1 OHM
*L_UNIT 1 HENRY

// MMMC spef file for corner 'my_rc'

*NAME_MAP

*1 CLK
*2 RST_n
*3 VIN
*4 DIN[13]
*5 DIN[12]
*6 DIN[11]
*7 DIN[10]
*8 DIN[9]
*9 DIN[8]
*10 DIN[7]
*11 DIN[6]
*12 DIN[5]
*13 DIN[4]
*14 DIN[3]
*15 DIN[2]
*16 DIN[1]
*17 DIN[0]
*18 A1[13]
*19 A1[12]
*20 A1[11]
*21 A1[10]
*22 A1[9]
*23 A1[8]
*24 A1[7]
*25 A1[6]
*26 A1[5]
*27 A1[4]
*28 A1[3]
*29 A1[2]
*30 A1[1]
*31 A1[0]
*32 A2[13]
*33 A2[12]
*34 A2[11]
*35 A2[10]
*36 A2[9]
*37 A2[8]
*38 A2[7]
*39 A2[6]
*40 A2[5]
*41 A2[4]
*42 A2[3]
*43 A2[2]
*44 A2[1]
*45 A2[0]
*46 B0[13]
*47 B0[12]
*48 B0[11]
*49 B0[10]
*50 B0[9]
*51 B0[8]
*52 B0[7]
*53 B0[6]
*54 B0[5]
*55 B0[4]
*56 B0[3]
*57 B0[2]
*58 B0[1]
*59 B0[0]
*60 B1[13]
*61 B1[12]
*62 B1[11]
*63 B1[10]
*64 B1[9]
*65 B1[8]
*66 B1[7]
*67 B1[6]
*68 B1[5]
*69 B1[4]
*70 B1[3]
*71 B1[2]
*72 B1[1]
*73 B1[0]
*74 B2[13]
*75 B2[12]
*76 B2[11]
*77 B2[10]
*78 B2[9]
*79 B2[8]
*80 B2[7]
*81 B2[6]
*82 B2[5]
*83 B2[4]
*84 B2[3]
*85 B2[2]
*86 B2[1]
*87 B2[0]
*88 VOUT
*89 DOUT[13]
*90 DOUT[12]
*91 DOUT[11]
*92 DOUT[10]
*93 DOUT[9]
*94 DOUT[8]
*95 DOUT[7]
*96 DOUT[6]
*97 DOUT[5]
*98 DOUT[4]
*99 DOUT[3]
*100 DOUT[2]
*101 DOUT[1]
*102 DOUT[0]
*103 FE_OFN7_int_reg_1d_3
*104 FE_OFN6_VIN
*105 FE_OFN5_VIN
*106 FE_OFN4_VIN
*107 FE_OFN3_VIN
*108 FE_OFN2_RST_n
*109 FE_OFN1_int_reg_2d_1
*110 FE_OFN0_int_reg_1d_1
*111 FE_DBTN10_VIN
*112 FE_DBTN9_int_reg_1d_9
*113 FE_DBTN8_int_reg_1d_7
*114 FE_DBTN7_int_reg_1d_5
*115 FE_DBTN6_int_reg_1d_3
*116 FE_DBTN5_int_reg_1d_0
*117 FE_DBTN4_int_reg_2d_9
*118 FE_DBTN3_int_reg_2d_7
*119 FE_DBTN2_int_reg_2d_5
*120 FE_DBTN1_int_reg_2d_3
*121 FE_DBTN0_int_reg_2d_0
*122 VIN_reg
*123 n11
*124 n13
*125 n14
*126 n15
*127 n16
*128 n17
*129 n18
*130 n19
*131 n20
*132 n21
*133 n22
*134 n23
*135 n24
*136 n25
*137 n26
*138 n27
*139 n28
*140 n29
*141 n30
*142 n31
*143 n32
*144 n33
*145 n34
*146 n35
*147 n36
*148 n37
*149 n38
*150 n39
*151 n40
*152 n41
*153 n42
*154 n43
*155 n44
*156 n45
*157 n46
*158 n47
*159 n48
*160 n49
*161 n50
*162 n51
*163 n52
*164 n53
*165 n54
*166 n55
*167 n56
*168 n57
*169 n58
*170 n59
*171 n60
*172 n61
*173 n62
*174 n63
*175 n64
*176 n65
*177 n66
*178 n67
*179 n68
*180 n69
*181 n70
*182 n71
*183 n72
*184 n73
*185 n74
*186 n75
*187 n76
*188 n77
*189 n78
*190 n79
*191 n80
*192 n81
*193 n82
*194 n84
*195 n85
*196 n86
*197 n87
*198 n88
*199 n89
*200 n90
*201 n91
*202 n92
*203 n93
*204 n94
*205 n95
*206 n96
*207 n97
*208 n98
*209 n99
*210 n100
*211 n101
*212 n102
*213 n103
*214 n104
*215 n105
*216 n106
*217 n107
*218 n108
*219 n109
*220 n110
*221 n111
*222 n112
*223 n113
*224 n114
*225 n115
*226 n116
*227 n117
*228 n118
*229 n119
*230 n120
*231 n121
*232 n122
*233 n123
*234 n124
*235 n125
*236 n126
*237 n127
*238 n128
*239 n129
*240 n130
*241 n131
*242 n132
*243 n133
*244 n134
*245 n135
*246 n136
*247 n137
*248 n138
*249 n139
*250 n140
*251 n141
*252 n142
*253 n143
*254 n144
*255 n145
*256 n146
*257 n147
*258 n148
*259 n149
*260 n150
*261 n151
*262 n152
*263 n153
*264 n154
*265 n155
*266 n156
*267 n157
*268 n158
*269 n159
*270 n160
*271 n161
*272 n162
*273 n163
*274 n164
*275 n165
*276 n166
*277 n167
*278 n168
*279 n169
*280 n170
*281 n171
*282 n172
*283 n173
*284 n174
*285 n175
*286 n176
*287 n177
*288 n178
*289 n179
*290 n180
*291 n181
*292 n182
*293 n183
*294 n184
*295 n185
*296 n186
*297 n187
*298 n188
*299 n189
*300 n190
*301 n191
*302 n192
*303 n193
*304 n194
*305 n195
*306 n196
*307 n197
*308 n198
*309 n199
*310 n200
*311 n201
*312 n202
*313 n203
*314 n204
*315 n205
*316 n206
*317 n207
*318 n208
*319 n209
*320 n210
*321 n211
*322 n212
*323 n213
*324 n214
*325 n215
*326 n216
*327 n217
*328 n218
*329 n219
*330 n220
*331 n221
*332 n222
*333 n223
*334 n224
*335 n225
*336 n226
*337 n227
*338 n228
*339 n229
*340 n230
*341 n231
*342 n232
*343 n233
*344 n234
*345 n235
*346 n236
*347 n237
*348 n238
*349 n239
*350 n240
*351 n241
*352 n242
*353 n243
*354 n244
*355 n245
*356 n246
*357 n247
*358 n248
*359 n249
*360 n250
*361 n251
*362 n252
*363 n253
*364 n254
*365 n255
*366 n256
*367 n257
*368 n258
*369 n259
*370 n260
*371 n261
*372 n262
*373 n263
*374 n264
*375 n265
*376 n266
*377 n267
*378 n268
*379 n269
*380 n270
*381 n271
*382 n272
*383 n273
*384 n295
*385 n296
*386 n297
*387 n298
*388 n299
*389 n300
*390 n301
*391 n302
*392 n303
*393 n304
*394 add_A0_add_16_n1
*395 add_A1_add_16_n1
*396 mul_A1_OUTPUT_0_
*397 mul_A1_OUTPUT_19_
*398 mul_A1_mult_16_n412
*399 mul_A1_mult_16_n410
*400 mul_A1_mult_16_n408
*401 mul_A1_mult_16_n407
*402 mul_A1_mult_16_n406
*403 mul_A1_mult_16_n405
*404 mul_A1_mult_16_n404
*405 mul_A1_mult_16_n403
*406 mul_A1_mult_16_n402
*407 mul_A1_mult_16_n401
*408 mul_A1_mult_16_n400
*409 mul_A1_mult_16_n399
*410 mul_A1_mult_16_n398
*411 mul_A1_mult_16_n397
*412 mul_A1_mult_16_n396
*413 mul_A1_mult_16_n395
*414 mul_A1_mult_16_n394
*415 mul_A1_mult_16_n393
*416 mul_A1_mult_16_n392
*417 mul_A1_mult_16_n391
*418 mul_A1_mult_16_n390
*419 mul_A1_mult_16_n389
*420 mul_A1_mult_16_n388
*421 mul_A1_mult_16_n387
*422 mul_A1_mult_16_n386
*423 mul_A1_mult_16_n385
*424 mul_A1_mult_16_n384
*425 mul_A1_mult_16_n383
*426 mul_A1_mult_16_n382
*427 mul_A1_mult_16_n381
*428 mul_A1_mult_16_n380
*429 mul_A1_mult_16_n379
*430 mul_A1_mult_16_n378
*431 mul_A1_mult_16_n377
*432 mul_A1_mult_16_n376
*433 mul_A1_mult_16_n375
*434 mul_A1_mult_16_n374
*435 mul_A1_mult_16_n373
*436 mul_A1_mult_16_n372
*437 mul_A1_mult_16_n371
*438 mul_A1_mult_16_n370
*439 mul_A1_mult_16_n369
*440 mul_A1_mult_16_n368
*441 mul_A1_mult_16_n367
*442 mul_A1_mult_16_n366
*443 mul_A1_mult_16_n365
*444 mul_A1_mult_16_n364
*445 mul_A1_mult_16_n363
*446 mul_A1_mult_16_n362
*447 mul_A1_mult_16_n361
*448 mul_A1_mult_16_n360
*449 mul_A1_mult_16_n359
*450 mul_A1_mult_16_n358
*451 mul_A1_mult_16_n357
*452 mul_A1_mult_16_n356
*453 mul_A1_mult_16_n355
*454 mul_A1_mult_16_n354
*455 mul_A1_mult_16_n353
*456 mul_A1_mult_16_n352
*457 mul_A1_mult_16_n351
*458 mul_A1_mult_16_n350
*459 mul_A1_mult_16_n349
*460 mul_A1_mult_16_n348
*461 mul_A1_mult_16_n347
*462 mul_A1_mult_16_n346
*463 mul_A1_mult_16_n345
*464 mul_A1_mult_16_n344
*465 mul_A1_mult_16_n343
*466 mul_A1_mult_16_n342
*467 mul_A1_mult_16_n341
*468 mul_A1_mult_16_n340
*469 mul_A1_mult_16_n339
*470 mul_A1_mult_16_n338
*471 mul_A1_mult_16_n337
*472 mul_A1_mult_16_n336
*473 mul_A1_mult_16_n335
*474 mul_A1_mult_16_n334
*475 mul_A1_mult_16_n333
*476 mul_A1_mult_16_n332
*477 mul_A1_mult_16_n327
*478 mul_A1_mult_16_n326
*479 mul_A1_mult_16_n324
*480 mul_A1_mult_16_n323
*481 mul_A1_mult_16_n322
*482 mul_A1_mult_16_n321
*483 mul_A1_mult_16_n320
*484 mul_A1_mult_16_n319
*485 mul_A1_mult_16_n318
*486 mul_A1_mult_16_n317
*487 mul_A1_mult_16_n316
*488 mul_A1_mult_16_n315
*489 mul_A1_mult_16_n314
*490 mul_A1_mult_16_n313
*491 mul_A1_mult_16_n312
*492 mul_A1_mult_16_n311
*493 mul_A1_mult_16_n310
*494 mul_A1_mult_16_n309
*495 mul_A1_mult_16_n308
*496 mul_A1_mult_16_n307
*497 mul_A1_mult_16_n158
*498 mul_A1_mult_16_n157
*499 mul_A1_mult_16_n156
*500 mul_A1_mult_16_n155
*501 mul_A1_mult_16_n154
*502 mul_A1_mult_16_n153
*503 mul_A1_mult_16_n152
*504 mul_A1_mult_16_n149
*505 mul_A1_mult_16_n148
*506 mul_A1_mult_16_n147
*507 mul_A1_mult_16_n146
*508 mul_A1_mult_16_n145
*509 mul_A1_mult_16_n144
*510 mul_A1_mult_16_n143
*511 mul_A1_mult_16_n141
*512 mul_A1_mult_16_n140
*513 mul_A1_mult_16_n139
*514 mul_A1_mult_16_n138
*515 mul_A1_mult_16_n137
*516 mul_A1_mult_16_n136
*517 mul_A1_mult_16_n135
*518 mul_A1_mult_16_n134
*519 mul_A1_mult_16_n133
*520 mul_A1_mult_16_n132
*521 mul_A1_mult_16_n130
*522 mul_A1_mult_16_n129
*523 mul_A1_mult_16_n128
*524 mul_A1_mult_16_n127
*525 mul_A1_mult_16_n125
*526 mul_A1_mult_16_n124
*527 mul_A1_mult_16_n123
*528 mul_A1_mult_16_n122
*529 mul_A1_mult_16_n120
*530 mul_A1_mult_16_n119
*531 mul_A1_mult_16_n118
*532 mul_A1_mult_16_n117
*533 mul_A1_mult_16_n116
*534 mul_A1_mult_16_n115
*535 mul_A1_mult_16_n114
*536 mul_A1_mult_16_n113
*537 mul_A1_mult_16_n112
*538 mul_A1_mult_16_n108
*539 mul_A1_mult_16_n107
*540 mul_A1_mult_16_n106
*541 mul_A1_mult_16_n90
*542 mul_A1_mult_16_n89
*543 mul_A1_mult_16_n88
*544 mul_A1_mult_16_n87
*545 mul_A1_mult_16_n86
*546 mul_A1_mult_16_n85
*547 mul_A1_mult_16_n84
*548 mul_A1_mult_16_n83
*549 mul_A1_mult_16_n82
*550 mul_A1_mult_16_n81
*551 mul_A1_mult_16_n80
*552 mul_A1_mult_16_n79
*553 mul_A1_mult_16_n78
*554 mul_A1_mult_16_n77
*555 mul_A1_mult_16_n76
*556 mul_A1_mult_16_n75
*557 mul_A1_mult_16_n74
*558 mul_A1_mult_16_n73
*559 mul_A1_mult_16_n72
*560 mul_A1_mult_16_n71
*561 mul_A1_mult_16_n70
*562 mul_A1_mult_16_n69
*563 mul_A1_mult_16_n68
*564 mul_A1_mult_16_n67
*565 mul_A1_mult_16_n66
*566 mul_A1_mult_16_n65
*567 mul_A1_mult_16_n64
*568 mul_A1_mult_16_n63
*569 mul_A1_mult_16_n62
*570 mul_A1_mult_16_n61
*571 mul_A1_mult_16_n60
*572 mul_A1_mult_16_n59
*573 mul_A1_mult_16_n58
*574 mul_A1_mult_16_n57
*575 mul_A1_mult_16_n56
*576 mul_A1_mult_16_n55
*577 mul_A1_mult_16_n54
*578 mul_A1_mult_16_n53
*579 mul_A1_mult_16_n52
*580 mul_A1_mult_16_n51
*581 mul_A1_mult_16_n50
*582 mul_A1_mult_16_n48
*583 mul_A1_mult_16_n47
*584 mul_A1_mult_16_n46
*585 mul_A1_mult_16_n45
*586 mul_A1_mult_16_n44
*587 mul_A1_mult_16_n43
*588 mul_A1_mult_16_n42
*589 mul_A1_mult_16_n41
*590 mul_A1_mult_16_n40
*591 mul_A1_mult_16_n39
*592 mul_A1_mult_16_n38
*593 mul_A1_mult_16_n37
*594 mul_A1_mult_16_n35
*595 mul_A1_mult_16_n34
*596 mul_A1_mult_16_n33
*597 mul_A1_mult_16_n32
*598 mul_A1_mult_16_n31
*599 mul_A1_mult_16_n30
*600 mul_A1_mult_16_n29
*601 mul_A1_mult_16_n28
*602 mul_A1_mult_16_n27
*603 mul_A1_mult_16_n25
*604 mul_A1_mult_16_n24
*605 mul_A1_mult_16_n23
*606 mul_A1_mult_16_n22
*607 mul_A1_mult_16_n21
*608 mul_A1_mult_16_n19
*609 mul_A1_mult_16_n10
*610 mul_A1_mult_16_n9
*611 mul_A1_mult_16_n8
*612 mul_A1_mult_16_n7
*613 mul_A1_mult_16_n6
*614 mul_A1_mult_16_n5
*615 mul_A1_mult_16_n4
*616 mul_A1_mult_16_n3
*617 mul_A1_mult_16_n2
*618 mul_A1_mult_16_n1
*619 mul_A2_OUTPUT_0_
*620 mul_A2_OUTPUT_19_
*621 mul_A2_mult_16_n412
*622 mul_A2_mult_16_n410
*623 mul_A2_mult_16_n408
*624 mul_A2_mult_16_n407
*625 mul_A2_mult_16_n406
*626 mul_A2_mult_16_n405
*627 mul_A2_mult_16_n404
*628 mul_A2_mult_16_n403
*629 mul_A2_mult_16_n402
*630 mul_A2_mult_16_n401
*631 mul_A2_mult_16_n400
*632 mul_A2_mult_16_n399
*633 mul_A2_mult_16_n398
*634 mul_A2_mult_16_n397
*635 mul_A2_mult_16_n396
*636 mul_A2_mult_16_n395
*637 mul_A2_mult_16_n394
*638 mul_A2_mult_16_n393
*639 mul_A2_mult_16_n392
*640 mul_A2_mult_16_n391
*641 mul_A2_mult_16_n390
*642 mul_A2_mult_16_n389
*643 mul_A2_mult_16_n388
*644 mul_A2_mult_16_n387
*645 mul_A2_mult_16_n386
*646 mul_A2_mult_16_n385
*647 mul_A2_mult_16_n384
*648 mul_A2_mult_16_n383
*649 mul_A2_mult_16_n382
*650 mul_A2_mult_16_n381
*651 mul_A2_mult_16_n380
*652 mul_A2_mult_16_n379
*653 mul_A2_mult_16_n378
*654 mul_A2_mult_16_n377
*655 mul_A2_mult_16_n376
*656 mul_A2_mult_16_n375
*657 mul_A2_mult_16_n374
*658 mul_A2_mult_16_n373
*659 mul_A2_mult_16_n372
*660 mul_A2_mult_16_n371
*661 mul_A2_mult_16_n370
*662 mul_A2_mult_16_n369
*663 mul_A2_mult_16_n368
*664 mul_A2_mult_16_n367
*665 mul_A2_mult_16_n366
*666 mul_A2_mult_16_n365
*667 mul_A2_mult_16_n364
*668 mul_A2_mult_16_n363
*669 mul_A2_mult_16_n362
*670 mul_A2_mult_16_n361
*671 mul_A2_mult_16_n360
*672 mul_A2_mult_16_n359
*673 mul_A2_mult_16_n358
*674 mul_A2_mult_16_n357
*675 mul_A2_mult_16_n356
*676 mul_A2_mult_16_n355
*677 mul_A2_mult_16_n354
*678 mul_A2_mult_16_n353
*679 mul_A2_mult_16_n352
*680 mul_A2_mult_16_n351
*681 mul_A2_mult_16_n350
*682 mul_A2_mult_16_n349
*683 mul_A2_mult_16_n348
*684 mul_A2_mult_16_n347
*685 mul_A2_mult_16_n346
*686 mul_A2_mult_16_n345
*687 mul_A2_mult_16_n344
*688 mul_A2_mult_16_n343
*689 mul_A2_mult_16_n342
*690 mul_A2_mult_16_n341
*691 mul_A2_mult_16_n340
*692 mul_A2_mult_16_n339
*693 mul_A2_mult_16_n338
*694 mul_A2_mult_16_n337
*695 mul_A2_mult_16_n336
*696 mul_A2_mult_16_n335
*697 mul_A2_mult_16_n334
*698 mul_A2_mult_16_n333
*699 mul_A2_mult_16_n332
*700 mul_A2_mult_16_n327
*701 mul_A2_mult_16_n326
*702 mul_A2_mult_16_n324
*703 mul_A2_mult_16_n323
*704 mul_A2_mult_16_n322
*705 mul_A2_mult_16_n321
*706 mul_A2_mult_16_n320
*707 mul_A2_mult_16_n319
*708 mul_A2_mult_16_n318
*709 mul_A2_mult_16_n317
*710 mul_A2_mult_16_n316
*711 mul_A2_mult_16_n315
*712 mul_A2_mult_16_n314
*713 mul_A2_mult_16_n313
*714 mul_A2_mult_16_n312
*715 mul_A2_mult_16_n311
*716 mul_A2_mult_16_n310
*717 mul_A2_mult_16_n309
*718 mul_A2_mult_16_n308
*719 mul_A2_mult_16_n307
*720 mul_A2_mult_16_n158
*721 mul_A2_mult_16_n157
*722 mul_A2_mult_16_n156
*723 mul_A2_mult_16_n155
*724 mul_A2_mult_16_n154
*725 mul_A2_mult_16_n153
*726 mul_A2_mult_16_n152
*727 mul_A2_mult_16_n149
*728 mul_A2_mult_16_n148
*729 mul_A2_mult_16_n147
*730 mul_A2_mult_16_n146
*731 mul_A2_mult_16_n145
*732 mul_A2_mult_16_n144
*733 mul_A2_mult_16_n143
*734 mul_A2_mult_16_n141
*735 mul_A2_mult_16_n140
*736 mul_A2_mult_16_n139
*737 mul_A2_mult_16_n138
*738 mul_A2_mult_16_n137
*739 mul_A2_mult_16_n136
*740 mul_A2_mult_16_n135
*741 mul_A2_mult_16_n134
*742 mul_A2_mult_16_n133
*743 mul_A2_mult_16_n132
*744 mul_A2_mult_16_n130
*745 mul_A2_mult_16_n129
*746 mul_A2_mult_16_n128
*747 mul_A2_mult_16_n127
*748 mul_A2_mult_16_n125
*749 mul_A2_mult_16_n124
*750 mul_A2_mult_16_n123
*751 mul_A2_mult_16_n122
*752 mul_A2_mult_16_n120
*753 mul_A2_mult_16_n119
*754 mul_A2_mult_16_n118
*755 mul_A2_mult_16_n117
*756 mul_A2_mult_16_n116
*757 mul_A2_mult_16_n115
*758 mul_A2_mult_16_n114
*759 mul_A2_mult_16_n113
*760 mul_A2_mult_16_n112
*761 mul_A2_mult_16_n108
*762 mul_A2_mult_16_n107
*763 mul_A2_mult_16_n106
*764 mul_A2_mult_16_n90
*765 mul_A2_mult_16_n89
*766 mul_A2_mult_16_n88
*767 mul_A2_mult_16_n87
*768 mul_A2_mult_16_n86
*769 mul_A2_mult_16_n85
*770 mul_A2_mult_16_n84
*771 mul_A2_mult_16_n83
*772 mul_A2_mult_16_n82
*773 mul_A2_mult_16_n81
*774 mul_A2_mult_16_n80
*775 mul_A2_mult_16_n79
*776 mul_A2_mult_16_n78
*777 mul_A2_mult_16_n77
*778 mul_A2_mult_16_n76
*779 mul_A2_mult_16_n75
*780 mul_A2_mult_16_n74
*781 mul_A2_mult_16_n73
*782 mul_A2_mult_16_n72
*783 mul_A2_mult_16_n71
*784 mul_A2_mult_16_n70
*785 mul_A2_mult_16_n69
*786 mul_A2_mult_16_n68
*787 mul_A2_mult_16_n67
*788 mul_A2_mult_16_n66
*789 mul_A2_mult_16_n65
*790 mul_A2_mult_16_n64
*791 mul_A2_mult_16_n63
*792 mul_A2_mult_16_n62
*793 mul_A2_mult_16_n61
*794 mul_A2_mult_16_n60
*795 mul_A2_mult_16_n59
*796 mul_A2_mult_16_n58
*797 mul_A2_mult_16_n57
*798 mul_A2_mult_16_n56
*799 mul_A2_mult_16_n55
*800 mul_A2_mult_16_n54
*801 mul_A2_mult_16_n53
*802 mul_A2_mult_16_n52
*803 mul_A2_mult_16_n51
*804 mul_A2_mult_16_n50
*805 mul_A2_mult_16_n48
*806 mul_A2_mult_16_n47
*807 mul_A2_mult_16_n46
*808 mul_A2_mult_16_n45
*809 mul_A2_mult_16_n44
*810 mul_A2_mult_16_n43
*811 mul_A2_mult_16_n42
*812 mul_A2_mult_16_n41
*813 mul_A2_mult_16_n40
*814 mul_A2_mult_16_n39
*815 mul_A2_mult_16_n38
*816 mul_A2_mult_16_n37
*817 mul_A2_mult_16_n35
*818 mul_A2_mult_16_n34
*819 mul_A2_mult_16_n33
*820 mul_A2_mult_16_n32
*821 mul_A2_mult_16_n31
*822 mul_A2_mult_16_n30
*823 mul_A2_mult_16_n29
*824 mul_A2_mult_16_n28
*825 mul_A2_mult_16_n27
*826 mul_A2_mult_16_n25
*827 mul_A2_mult_16_n24
*828 mul_A2_mult_16_n23
*829 mul_A2_mult_16_n22
*830 mul_A2_mult_16_n21
*831 mul_A2_mult_16_n19
*832 mul_A2_mult_16_n10
*833 mul_A2_mult_16_n9
*834 mul_A2_mult_16_n8
*835 mul_A2_mult_16_n7
*836 mul_A2_mult_16_n6
*837 mul_A2_mult_16_n5
*838 mul_A2_mult_16_n4
*839 mul_A2_mult_16_n3
*840 mul_A2_mult_16_n2
*841 mul_A2_mult_16_n1
*842 add_B0_add_16_n2
*843 add_B1_add_16_n1
*844 mul_B0_OUTPUT_0_
*845 mul_B0_OUTPUT_19_
*846 mul_B0_mult_16_n412
*847 mul_B0_mult_16_n411
*848 mul_B0_mult_16_n410
*849 mul_B0_mult_16_n409
*850 mul_B0_mult_16_n408
*851 mul_B0_mult_16_n407
*852 mul_B0_mult_16_n406
*853 mul_B0_mult_16_n405
*854 mul_B0_mult_16_n404
*855 mul_B0_mult_16_n403
*856 mul_B0_mult_16_n402
*857 mul_B0_mult_16_n401
*858 mul_B0_mult_16_n400
*859 mul_B0_mult_16_n399
*860 mul_B0_mult_16_n398
*861 mul_B0_mult_16_n397
*862 mul_B0_mult_16_n396
*863 mul_B0_mult_16_n395
*864 mul_B0_mult_16_n394
*865 mul_B0_mult_16_n393
*866 mul_B0_mult_16_n392
*867 mul_B0_mult_16_n391
*868 mul_B0_mult_16_n390
*869 mul_B0_mult_16_n389
*870 mul_B0_mult_16_n388
*871 mul_B0_mult_16_n387
*872 mul_B0_mult_16_n386
*873 mul_B0_mult_16_n385
*874 mul_B0_mult_16_n384
*875 mul_B0_mult_16_n383
*876 mul_B0_mult_16_n382
*877 mul_B0_mult_16_n381
*878 mul_B0_mult_16_n380
*879 mul_B0_mult_16_n379
*880 mul_B0_mult_16_n378
*881 mul_B0_mult_16_n377
*882 mul_B0_mult_16_n376
*883 mul_B0_mult_16_n375
*884 mul_B0_mult_16_n374
*885 mul_B0_mult_16_n373
*886 mul_B0_mult_16_n372
*887 mul_B0_mult_16_n371
*888 mul_B0_mult_16_n370
*889 mul_B0_mult_16_n369
*890 mul_B0_mult_16_n368
*891 mul_B0_mult_16_n367
*892 mul_B0_mult_16_n366
*893 mul_B0_mult_16_n365
*894 mul_B0_mult_16_n364
*895 mul_B0_mult_16_n363
*896 mul_B0_mult_16_n362
*897 mul_B0_mult_16_n361
*898 mul_B0_mult_16_n360
*899 mul_B0_mult_16_n359
*900 mul_B0_mult_16_n358
*901 mul_B0_mult_16_n357
*902 mul_B0_mult_16_n356
*903 mul_B0_mult_16_n355
*904 mul_B0_mult_16_n354
*905 mul_B0_mult_16_n353
*906 mul_B0_mult_16_n352
*907 mul_B0_mult_16_n351
*908 mul_B0_mult_16_n350
*909 mul_B0_mult_16_n349
*910 mul_B0_mult_16_n348
*911 mul_B0_mult_16_n347
*912 mul_B0_mult_16_n346
*913 mul_B0_mult_16_n345
*914 mul_B0_mult_16_n344
*915 mul_B0_mult_16_n343
*916 mul_B0_mult_16_n342
*917 mul_B0_mult_16_n341
*918 mul_B0_mult_16_n340
*919 mul_B0_mult_16_n339
*920 mul_B0_mult_16_n338
*921 mul_B0_mult_16_n337
*922 mul_B0_mult_16_n336
*923 mul_B0_mult_16_n335
*924 mul_B0_mult_16_n334
*925 mul_B0_mult_16_n333
*926 mul_B0_mult_16_n332
*927 mul_B0_mult_16_n331
*928 mul_B0_mult_16_n330
*929 mul_B0_mult_16_n329
*930 mul_B0_mult_16_n328
*931 mul_B0_mult_16_n327
*932 mul_B0_mult_16_n326
*933 mul_B0_mult_16_n325
*934 mul_B0_mult_16_n324
*935 mul_B0_mult_16_n323
*936 mul_B0_mult_16_n322
*937 mul_B0_mult_16_n321
*938 mul_B0_mult_16_n320
*939 mul_B0_mult_16_n319
*940 mul_B0_mult_16_n318
*941 mul_B0_mult_16_n317
*942 mul_B0_mult_16_n316
*943 mul_B0_mult_16_n315
*944 mul_B0_mult_16_n314
*945 mul_B0_mult_16_n313
*946 mul_B0_mult_16_n312
*947 mul_B0_mult_16_n311
*948 mul_B0_mult_16_n310
*949 mul_B0_mult_16_n309
*950 mul_B0_mult_16_n308
*951 mul_B0_mult_16_n307
*952 mul_B0_mult_16_n306
*953 mul_B0_mult_16_n158
*954 mul_B0_mult_16_n157
*955 mul_B0_mult_16_n156
*956 mul_B0_mult_16_n155
*957 mul_B0_mult_16_n154
*958 mul_B0_mult_16_n153
*959 mul_B0_mult_16_n152
*960 mul_B0_mult_16_n149
*961 mul_B0_mult_16_n148
*962 mul_B0_mult_16_n147
*963 mul_B0_mult_16_n146
*964 mul_B0_mult_16_n145
*965 mul_B0_mult_16_n144
*966 mul_B0_mult_16_n143
*967 mul_B0_mult_16_n141
*968 mul_B0_mult_16_n140
*969 mul_B0_mult_16_n139
*970 mul_B0_mult_16_n138
*971 mul_B0_mult_16_n137
*972 mul_B0_mult_16_n136
*973 mul_B0_mult_16_n135
*974 mul_B0_mult_16_n134
*975 mul_B0_mult_16_n133
*976 mul_B0_mult_16_n132
*977 mul_B0_mult_16_n130
*978 mul_B0_mult_16_n129
*979 mul_B0_mult_16_n128
*980 mul_B0_mult_16_n127
*981 mul_B0_mult_16_n125
*982 mul_B0_mult_16_n124
*983 mul_B0_mult_16_n123
*984 mul_B0_mult_16_n122
*985 mul_B0_mult_16_n120
*986 mul_B0_mult_16_n119
*987 mul_B0_mult_16_n118
*988 mul_B0_mult_16_n117
*989 mul_B0_mult_16_n116
*990 mul_B0_mult_16_n115
*991 mul_B0_mult_16_n114
*992 mul_B0_mult_16_n113
*993 mul_B0_mult_16_n112
*994 mul_B0_mult_16_n108
*995 mul_B0_mult_16_n107
*996 mul_B0_mult_16_n106
*997 mul_B0_mult_16_n90
*998 mul_B0_mult_16_n89
*999 mul_B0_mult_16_n88
*1000 mul_B0_mult_16_n87
*1001 mul_B0_mult_16_n86
*1002 mul_B0_mult_16_n85
*1003 mul_B0_mult_16_n84
*1004 mul_B0_mult_16_n83
*1005 mul_B0_mult_16_n82
*1006 mul_B0_mult_16_n81
*1007 mul_B0_mult_16_n80
*1008 mul_B0_mult_16_n79
*1009 mul_B0_mult_16_n78
*1010 mul_B0_mult_16_n77
*1011 mul_B0_mult_16_n76
*1012 mul_B0_mult_16_n75
*1013 mul_B0_mult_16_n74
*1014 mul_B0_mult_16_n73
*1015 mul_B0_mult_16_n72
*1016 mul_B0_mult_16_n71
*1017 mul_B0_mult_16_n70
*1018 mul_B0_mult_16_n69
*1019 mul_B0_mult_16_n68
*1020 mul_B0_mult_16_n67
*1021 mul_B0_mult_16_n66
*1022 mul_B0_mult_16_n65
*1023 mul_B0_mult_16_n64
*1024 mul_B0_mult_16_n63
*1025 mul_B0_mult_16_n62
*1026 mul_B0_mult_16_n61
*1027 mul_B0_mult_16_n60
*1028 mul_B0_mult_16_n59
*1029 mul_B0_mult_16_n58
*1030 mul_B0_mult_16_n57
*1031 mul_B0_mult_16_n56
*1032 mul_B0_mult_16_n55
*1033 mul_B0_mult_16_n54
*1034 mul_B0_mult_16_n53
*1035 mul_B0_mult_16_n52
*1036 mul_B0_mult_16_n51
*1037 mul_B0_mult_16_n50
*1038 mul_B0_mult_16_n48
*1039 mul_B0_mult_16_n47
*1040 mul_B0_mult_16_n46
*1041 mul_B0_mult_16_n45
*1042 mul_B0_mult_16_n44
*1043 mul_B0_mult_16_n43
*1044 mul_B0_mult_16_n42
*1045 mul_B0_mult_16_n41
*1046 mul_B0_mult_16_n40
*1047 mul_B0_mult_16_n39
*1048 mul_B0_mult_16_n38
*1049 mul_B0_mult_16_n37
*1050 mul_B0_mult_16_n35
*1051 mul_B0_mult_16_n34
*1052 mul_B0_mult_16_n33
*1053 mul_B0_mult_16_n32
*1054 mul_B0_mult_16_n31
*1055 mul_B0_mult_16_n30
*1056 mul_B0_mult_16_n29
*1057 mul_B0_mult_16_n28
*1058 mul_B0_mult_16_n27
*1059 mul_B0_mult_16_n25
*1060 mul_B0_mult_16_n24
*1061 mul_B0_mult_16_n23
*1062 mul_B0_mult_16_n22
*1063 mul_B0_mult_16_n21
*1064 mul_B0_mult_16_n19
*1065 mul_B0_mult_16_n10
*1066 mul_B0_mult_16_n9
*1067 mul_B0_mult_16_n8
*1068 mul_B0_mult_16_n7
*1069 mul_B0_mult_16_n6
*1070 mul_B0_mult_16_n5
*1071 mul_B0_mult_16_n4
*1072 mul_B0_mult_16_n3
*1073 mul_B0_mult_16_n2
*1074 mul_B0_mult_16_n1
*1075 mul_B1_OUTPUT_0_
*1076 mul_B1_OUTPUT_19_
*1077 mul_B1_mult_16_n413
*1078 mul_B1_mult_16_n412
*1079 mul_B1_mult_16_n411
*1080 mul_B1_mult_16_n410
*1081 mul_B1_mult_16_n409
*1082 mul_B1_mult_16_n408
*1083 mul_B1_mult_16_n407
*1084 mul_B1_mult_16_n406
*1085 mul_B1_mult_16_n405
*1086 mul_B1_mult_16_n404
*1087 mul_B1_mult_16_n403
*1088 mul_B1_mult_16_n402
*1089 mul_B1_mult_16_n401
*1090 mul_B1_mult_16_n400
*1091 mul_B1_mult_16_n399
*1092 mul_B1_mult_16_n398
*1093 mul_B1_mult_16_n397
*1094 mul_B1_mult_16_n396
*1095 mul_B1_mult_16_n395
*1096 mul_B1_mult_16_n394
*1097 mul_B1_mult_16_n393
*1098 mul_B1_mult_16_n392
*1099 mul_B1_mult_16_n391
*1100 mul_B1_mult_16_n390
*1101 mul_B1_mult_16_n389
*1102 mul_B1_mult_16_n388
*1103 mul_B1_mult_16_n387
*1104 mul_B1_mult_16_n386
*1105 mul_B1_mult_16_n385
*1106 mul_B1_mult_16_n384
*1107 mul_B1_mult_16_n383
*1108 mul_B1_mult_16_n382
*1109 mul_B1_mult_16_n381
*1110 mul_B1_mult_16_n380
*1111 mul_B1_mult_16_n379
*1112 mul_B1_mult_16_n378
*1113 mul_B1_mult_16_n377
*1114 mul_B1_mult_16_n376
*1115 mul_B1_mult_16_n375
*1116 mul_B1_mult_16_n374
*1117 mul_B1_mult_16_n373
*1118 mul_B1_mult_16_n372
*1119 mul_B1_mult_16_n371
*1120 mul_B1_mult_16_n370
*1121 mul_B1_mult_16_n369
*1122 mul_B1_mult_16_n368
*1123 mul_B1_mult_16_n367
*1124 mul_B1_mult_16_n366
*1125 mul_B1_mult_16_n365
*1126 mul_B1_mult_16_n364
*1127 mul_B1_mult_16_n363
*1128 mul_B1_mult_16_n362
*1129 mul_B1_mult_16_n361
*1130 mul_B1_mult_16_n360
*1131 mul_B1_mult_16_n359
*1132 mul_B1_mult_16_n358
*1133 mul_B1_mult_16_n357
*1134 mul_B1_mult_16_n356
*1135 mul_B1_mult_16_n355
*1136 mul_B1_mult_16_n354
*1137 mul_B1_mult_16_n353
*1138 mul_B1_mult_16_n352
*1139 mul_B1_mult_16_n351
*1140 mul_B1_mult_16_n350
*1141 mul_B1_mult_16_n349
*1142 mul_B1_mult_16_n348
*1143 mul_B1_mult_16_n347
*1144 mul_B1_mult_16_n346
*1145 mul_B1_mult_16_n345
*1146 mul_B1_mult_16_n344
*1147 mul_B1_mult_16_n343
*1148 mul_B1_mult_16_n342
*1149 mul_B1_mult_16_n341
*1150 mul_B1_mult_16_n340
*1151 mul_B1_mult_16_n339
*1152 mul_B1_mult_16_n338
*1153 mul_B1_mult_16_n337
*1154 mul_B1_mult_16_n336
*1155 mul_B1_mult_16_n335
*1156 mul_B1_mult_16_n334
*1157 mul_B1_mult_16_n333
*1158 mul_B1_mult_16_n332
*1159 mul_B1_mult_16_n327
*1160 mul_B1_mult_16_n326
*1161 mul_B1_mult_16_n324
*1162 mul_B1_mult_16_n323
*1163 mul_B1_mult_16_n322
*1164 mul_B1_mult_16_n321
*1165 mul_B1_mult_16_n320
*1166 mul_B1_mult_16_n319
*1167 mul_B1_mult_16_n318
*1168 mul_B1_mult_16_n317
*1169 mul_B1_mult_16_n316
*1170 mul_B1_mult_16_n315
*1171 mul_B1_mult_16_n314
*1172 mul_B1_mult_16_n313
*1173 mul_B1_mult_16_n312
*1174 mul_B1_mult_16_n311
*1175 mul_B1_mult_16_n310
*1176 mul_B1_mult_16_n309
*1177 mul_B1_mult_16_n308
*1178 mul_B1_mult_16_n307
*1179 mul_B1_mult_16_n158
*1180 mul_B1_mult_16_n157
*1181 mul_B1_mult_16_n156
*1182 mul_B1_mult_16_n155
*1183 mul_B1_mult_16_n154
*1184 mul_B1_mult_16_n153
*1185 mul_B1_mult_16_n152
*1186 mul_B1_mult_16_n149
*1187 mul_B1_mult_16_n148
*1188 mul_B1_mult_16_n147
*1189 mul_B1_mult_16_n146
*1190 mul_B1_mult_16_n145
*1191 mul_B1_mult_16_n144
*1192 mul_B1_mult_16_n143
*1193 mul_B1_mult_16_n141
*1194 mul_B1_mult_16_n140
*1195 mul_B1_mult_16_n139
*1196 mul_B1_mult_16_n138
*1197 mul_B1_mult_16_n137
*1198 mul_B1_mult_16_n136
*1199 mul_B1_mult_16_n135
*1200 mul_B1_mult_16_n134
*1201 mul_B1_mult_16_n133
*1202 mul_B1_mult_16_n132
*1203 mul_B1_mult_16_n130
*1204 mul_B1_mult_16_n129
*1205 mul_B1_mult_16_n128
*1206 mul_B1_mult_16_n127
*1207 mul_B1_mult_16_n125
*1208 mul_B1_mult_16_n124
*1209 mul_B1_mult_16_n123
*1210 mul_B1_mult_16_n122
*1211 mul_B1_mult_16_n120
*1212 mul_B1_mult_16_n119
*1213 mul_B1_mult_16_n118
*1214 mul_B1_mult_16_n117
*1215 mul_B1_mult_16_n116
*1216 mul_B1_mult_16_n115
*1217 mul_B1_mult_16_n114
*1218 mul_B1_mult_16_n113
*1219 mul_B1_mult_16_n112
*1220 mul_B1_mult_16_n108
*1221 mul_B1_mult_16_n107
*1222 mul_B1_mult_16_n106
*1223 mul_B1_mult_16_n90
*1224 mul_B1_mult_16_n89
*1225 mul_B1_mult_16_n88
*1226 mul_B1_mult_16_n87
*1227 mul_B1_mult_16_n86
*1228 mul_B1_mult_16_n85
*1229 mul_B1_mult_16_n84
*1230 mul_B1_mult_16_n83
*1231 mul_B1_mult_16_n82
*1232 mul_B1_mult_16_n81
*1233 mul_B1_mult_16_n80
*1234 mul_B1_mult_16_n79
*1235 mul_B1_mult_16_n78
*1236 mul_B1_mult_16_n77
*1237 mul_B1_mult_16_n76
*1238 mul_B1_mult_16_n75
*1239 mul_B1_mult_16_n74
*1240 mul_B1_mult_16_n73
*1241 mul_B1_mult_16_n72
*1242 mul_B1_mult_16_n71
*1243 mul_B1_mult_16_n70
*1244 mul_B1_mult_16_n69
*1245 mul_B1_mult_16_n68
*1246 mul_B1_mult_16_n67
*1247 mul_B1_mult_16_n66
*1248 mul_B1_mult_16_n65
*1249 mul_B1_mult_16_n64
*1250 mul_B1_mult_16_n63
*1251 mul_B1_mult_16_n62
*1252 mul_B1_mult_16_n61
*1253 mul_B1_mult_16_n60
*1254 mul_B1_mult_16_n59
*1255 mul_B1_mult_16_n58
*1256 mul_B1_mult_16_n57
*1257 mul_B1_mult_16_n56
*1258 mul_B1_mult_16_n55
*1259 mul_B1_mult_16_n54
*1260 mul_B1_mult_16_n53
*1261 mul_B1_mult_16_n52
*1262 mul_B1_mult_16_n51
*1263 mul_B1_mult_16_n50
*1264 mul_B1_mult_16_n48
*1265 mul_B1_mult_16_n47
*1266 mul_B1_mult_16_n46
*1267 mul_B1_mult_16_n45
*1268 mul_B1_mult_16_n44
*1269 mul_B1_mult_16_n43
*1270 mul_B1_mult_16_n42
*1271 mul_B1_mult_16_n41
*1272 mul_B1_mult_16_n40
*1273 mul_B1_mult_16_n39
*1274 mul_B1_mult_16_n38
*1275 mul_B1_mult_16_n37
*1276 mul_B1_mult_16_n35
*1277 mul_B1_mult_16_n34
*1278 mul_B1_mult_16_n33
*1279 mul_B1_mult_16_n32
*1280 mul_B1_mult_16_n31
*1281 mul_B1_mult_16_n30
*1282 mul_B1_mult_16_n29
*1283 mul_B1_mult_16_n28
*1284 mul_B1_mult_16_n27
*1285 mul_B1_mult_16_n25
*1286 mul_B1_mult_16_n24
*1287 mul_B1_mult_16_n23
*1288 mul_B1_mult_16_n22
*1289 mul_B1_mult_16_n21
*1290 mul_B1_mult_16_n19
*1291 mul_B1_mult_16_n10
*1292 mul_B1_mult_16_n9
*1293 mul_B1_mult_16_n8
*1294 mul_B1_mult_16_n7
*1295 mul_B1_mult_16_n6
*1296 mul_B1_mult_16_n5
*1297 mul_B1_mult_16_n4
*1298 mul_B1_mult_16_n3
*1299 mul_B1_mult_16_n2
*1300 mul_B1_mult_16_n1
*1301 mul_B2_OUTPUT_0_
*1302 mul_B2_OUTPUT_19_
*1303 mul_B2_mult_16_n413
*1304 mul_B2_mult_16_n412
*1305 mul_B2_mult_16_n411
*1306 mul_B2_mult_16_n410
*1307 mul_B2_mult_16_n409
*1308 mul_B2_mult_16_n408
*1309 mul_B2_mult_16_n407
*1310 mul_B2_mult_16_n406
*1311 mul_B2_mult_16_n405
*1312 mul_B2_mult_16_n404
*1313 mul_B2_mult_16_n403
*1314 mul_B2_mult_16_n402
*1315 mul_B2_mult_16_n401
*1316 mul_B2_mult_16_n400
*1317 mul_B2_mult_16_n399
*1318 mul_B2_mult_16_n398
*1319 mul_B2_mult_16_n397
*1320 mul_B2_mult_16_n396
*1321 mul_B2_mult_16_n395
*1322 mul_B2_mult_16_n394
*1323 mul_B2_mult_16_n393
*1324 mul_B2_mult_16_n392
*1325 mul_B2_mult_16_n391
*1326 mul_B2_mult_16_n390
*1327 mul_B2_mult_16_n389
*1328 mul_B2_mult_16_n388
*1329 mul_B2_mult_16_n387
*1330 mul_B2_mult_16_n386
*1331 mul_B2_mult_16_n385
*1332 mul_B2_mult_16_n384
*1333 mul_B2_mult_16_n383
*1334 mul_B2_mult_16_n382
*1335 mul_B2_mult_16_n381
*1336 mul_B2_mult_16_n380
*1337 mul_B2_mult_16_n379
*1338 mul_B2_mult_16_n378
*1339 mul_B2_mult_16_n377
*1340 mul_B2_mult_16_n376
*1341 mul_B2_mult_16_n375
*1342 mul_B2_mult_16_n374
*1343 mul_B2_mult_16_n373
*1344 mul_B2_mult_16_n372
*1345 mul_B2_mult_16_n371
*1346 mul_B2_mult_16_n370
*1347 mul_B2_mult_16_n369
*1348 mul_B2_mult_16_n368
*1349 mul_B2_mult_16_n367
*1350 mul_B2_mult_16_n366
*1351 mul_B2_mult_16_n365
*1352 mul_B2_mult_16_n364
*1353 mul_B2_mult_16_n363
*1354 mul_B2_mult_16_n362
*1355 mul_B2_mult_16_n361
*1356 mul_B2_mult_16_n360
*1357 mul_B2_mult_16_n359
*1358 mul_B2_mult_16_n358
*1359 mul_B2_mult_16_n357
*1360 mul_B2_mult_16_n356
*1361 mul_B2_mult_16_n355
*1362 mul_B2_mult_16_n354
*1363 mul_B2_mult_16_n353
*1364 mul_B2_mult_16_n352
*1365 mul_B2_mult_16_n351
*1366 mul_B2_mult_16_n350
*1367 mul_B2_mult_16_n349
*1368 mul_B2_mult_16_n348
*1369 mul_B2_mult_16_n347
*1370 mul_B2_mult_16_n346
*1371 mul_B2_mult_16_n345
*1372 mul_B2_mult_16_n344
*1373 mul_B2_mult_16_n343
*1374 mul_B2_mult_16_n342
*1375 mul_B2_mult_16_n341
*1376 mul_B2_mult_16_n340
*1377 mul_B2_mult_16_n339
*1378 mul_B2_mult_16_n338
*1379 mul_B2_mult_16_n337
*1380 mul_B2_mult_16_n336
*1381 mul_B2_mult_16_n335
*1382 mul_B2_mult_16_n334
*1383 mul_B2_mult_16_n333
*1384 mul_B2_mult_16_n332
*1385 mul_B2_mult_16_n327
*1386 mul_B2_mult_16_n326
*1387 mul_B2_mult_16_n324
*1388 mul_B2_mult_16_n323
*1389 mul_B2_mult_16_n322
*1390 mul_B2_mult_16_n321
*1391 mul_B2_mult_16_n320
*1392 mul_B2_mult_16_n319
*1393 mul_B2_mult_16_n318
*1394 mul_B2_mult_16_n317
*1395 mul_B2_mult_16_n316
*1396 mul_B2_mult_16_n315
*1397 mul_B2_mult_16_n314
*1398 mul_B2_mult_16_n313
*1399 mul_B2_mult_16_n312
*1400 mul_B2_mult_16_n311
*1401 mul_B2_mult_16_n310
*1402 mul_B2_mult_16_n309
*1403 mul_B2_mult_16_n308
*1404 mul_B2_mult_16_n307
*1405 mul_B2_mult_16_n158
*1406 mul_B2_mult_16_n157
*1407 mul_B2_mult_16_n156
*1408 mul_B2_mult_16_n155
*1409 mul_B2_mult_16_n154
*1410 mul_B2_mult_16_n153