*SPEF "IEEE 1481-1998"
*DESIGN "myiir_adv"
*DATE "Tue Nov  3 18:48:32 2020"
*VENDOR "Cadence Design Systems, Inc."
*PROGRAM "Innovus"
*VERSION "17.11-s080_1"
*DESIGN_FLOW "COUPLING C" "PIN_CAP NONE" "NAME_SCOPE LOCAL"
*DIVIDER /
*DELIMITER :
*BUS_DELIMITER []
*T_UNIT 1 NS
*C_UNIT 1 PF
*R_UNIT 1 OHM
*L_UNIT 1 HENRY

// MMMC spef file for corner 'my_rc'

*NAME_MAP

*1 FE_OFN20_VIN
*2 FE_OFN19_VIN
*3 FE_OFN18_RST_n
*4 FE_OFN17_RST_n
*5 FE_OFN16_RST_n
*6 FE_OFN15_RST_n
*7 FE_OFN14_VIN_reg_d1
*8 FE_OFN13_int_reg_2d_10
*9 FE_OFN12_int_reg_2d_3
*10 FE_OFN11_int_reg_2d_9
*11 FE_OFN10_int_reg_2d_7
*12 FE_OFN9_int_reg_2d_1
*13 FE_OFN8_int_reg_2d_5
*14 FE_OFN7_int_reg_1d_10
*15 FE_OFN6_int_reg_1d_3
*16 FE_OFN5_int_reg_1d_1
*17 FE_OFN4_int_reg_1d_9
*18 FE_OFN3_int_reg_1d_7
*19 FE_OFN2_int_reg_1d_5
*20 FE_OFN1_n304
*21 FE_OFN0_n304
*22 FE_DBTN12_n304
*23 FE_DBTN11_int_reg_1d_0
*24 FE_DBTN10_int_reg_1d_10
*25 FE_DBTN9_int_reg_1d_9
*26 FE_DBTN8_int_reg_1d_7
*27 FE_DBTN7_int_reg_1d_5
*28 FE_DBTN6_int_reg_1d_3
*29 FE_DBTN5_int_reg_2d_10
*30 FE_DBTN4_int_reg_2d_0
*31 FE_DBTN3_int_reg_2d_9
*32 FE_DBTN2_int_reg_2d_7
*33 FE_DBTN1_int_reg_2d_5
*34 FE_DBTN0_int_reg_2d_3
*35 DIN[13]
*36 DIN[12]
*37 DIN[11]
*38 DIN[10]
*39 DIN[9]
*40 DIN[8]
*41 DIN[7]
*42 DIN[6]
*43 DIN[5]
*44 DIN[4]
*45 DIN[3]
*46 DIN[2]
*47 DIN[1]
*48 DIN[0]
*49 E2[13]
*50 E2[12]
*51 E2[11]
*52 E2[10]
*53 E2[9]
*54 E2[8]
*55 E2[7]
*56 E2[6]
*57 E2[5]
*58 E2[4]
*59 E2[3]
*60 E2[2]
*61 E2[1]
*62 E2[0]
*63 E3[13]
*64 E3[12]
*65 E3[11]
*66 E3[10]
*67 E3[9]
*68 E3[8]
*69 E3[7]
*70 E3[6]
*71 E3[5]
*72 E3[4]
*73 E3[3]
*74 E3[2]
*75 E3[1]
*76 E3[0]
*77 F0[13]
*78 F0[12]
*79 F0[11]
*80 F0[10]
*81 F0[9]
*82 F0[8]
*83 F0[7]
*84 F0[6]
*85 F0[5]
*86 F0[4]
*87 F0[3]
*88 F0[2]
*89 F0[1]
*90 F0[0]
*91 F1[13]
*92 F1[12]
*93 F1[11]
*94 F1[10]
*95 F1[9]
*96 F1[8]
*97 F1[7]
*98 F1[6]
*99 F1[5]
*100 F1[4]
*101 F1[3]
*102 F1[2]
*103 F1[1]
*104 F1[0]
*105 F2[13]
*106 F2[12]
*107 F2[11]
*108 F2[10]
*109 F2[9]
*110 F2[8]
*111 F2[7]
*112 F2[6]
*113 F2[5]
*114 F2[4]
*115 F2[3]
*116 F2[2]
*117 F2[1]
*118 F2[0]
*119 F3[13]
*120 F3[12]
*121 F3[11]
*122 F3[10]
*123 F3[9]
*124 F3[8]
*125 F3[7]
*126 F3[6]
*127 F3[5]
*128 F3[4]
*129 F3[3]
*130 F3[2]
*131 F3[1]
*132 F3[0]
*133 DOUT[13]
*134 DOUT[12]
*135 DOUT[11]
*136 DOUT[10]
*137 DOUT[9]
*138 DOUT[8]
*139 DOUT[7]
*140 DOUT[6]
*141 DOUT[5]
*142 DOUT[4]
*143 DOUT[3]
*144 DOUT[2]
*145 DOUT[1]
*146 DOUT[0]
*147 CLK
*148 RST_n
*149 VIN
*150 VOUT
*151 VIN_reg_d1
*152 VIN_reg_d2
*153 VIN_reg_d3
*154 n11
*155 n102
*156 n103
*157 n104
*158 n105
*159 n106
*160 n107
*161 n108
*162 n109
*163 n110
*164 n111
*165 n112
*166 n113
*167 n114
*168 n115
*169 n116
*170 n117
*171 n118
*172 n119
*173 n120
*174 n121
*175 n122
*176 n123
*177 n124
*178 n125
*179 n126
*180 n127
*181 n128
*182 n129
*183 n130
*184 n131
*185 n132
*186 n133
*187 n134
*188 n135
*189 n136
*190 n137
*191 n138
*192 n139
*193 n140
*194 n141
*195 n142
*196 n143
*197 n144
*198 n145
*199 n146
*200 n147
*201 n148
*202 n149
*203 n150
*204 n151
*205 n152
*206 n153
*207 n154
*208 n155
*209 n156
*210 n157
*211 n158
*212 n159
*213 n160
*214 n161
*215 n162
*216 n163
*217 n164
*218 n165
*219 n166
*220 n167
*221 n168
*222 n169
*223 n170
*224 n171
*225 n172
*226 n173
*227 n174
*228 n175
*229 n176
*230 n177
*231 n178
*232 n179
*233 n180
*234 n181
*235 n182
*236 n183
*237 n184
*238 n185
*239 n186
*240 n187
*241 n188
*242 n189
*243 n190
*244 n191
*245 n192
*246 n193
*247 n194
*248 n195
*249 n196
*250 n197
*251 n198
*252 n199
*253 n200
*254 n201
*255 n202
*256 n203
*257 n204
*258 n205
*259 n206
*260 n207
*261 n208
*262 n209
*263 n210
*264 n211
*265 n212
*266 n213
*267 n214
*268 n215
*269 n216
*270 n217
*271 n218
*272 n219
*273 n220
*274 n221
*275 n222
*276 n223
*277 n224
*278 n225
*279 n226
*280 n227
*281 n228
*282 n229
*283 n230
*284 n231
*285 n232
*286 n233
*287 n234
*288 n235
*289 n236
*290 n237
*291 n238
*292 n239
*293 n240
*294 n241
*295 n242
*296 n243
*297 n244
*298 n245
*299 n246
*300 n247
*301 n248
*302 n249
*303 n250
*304 n251
*305 n252
*306 n253
*307 n254
*308 n255
*309 n256
*310 n257
*311 n258
*312 n259
*313 n260
*314 n261
*315 n262
*316 n263
*317 n264
*318 n265
*319 n266
*320 n267
*321 n268
*322 n269
*323 n270
*324 n271
*325 n272
*326 n273
*327 n274
*328 n275
*329 n276
*330 n277
*331 n278
*332 n279
*333 n280
*334 n281
*335 n282
*336 n283
*337 n284
*338 n285
*339 n286
*340 n287
*341 n288
*342 n289
*343 n290
*344 n291
*345 n292
*346 n293
*347 n294
*348 n295
*349 n296
*350 n297
*351 n298
*352 n299
*353 n300
*354 n301
*355 n302
*356 n303
*357 n304
*358 n305
*359 n306
*360 n307
*361 n308
*362 n309
*363 n310
*364 n311
*365 n312
*366 n313
*367 n314
*368 n315
*369 n316
*370 n317
*371 n318
*372 n319
*373 n320
*374 n321
*375 n322
*376 n323
*377 n324
*378 n325
*379 n326
*380 n327
*381 n328
*382 n329
*383 n330
*384 n331
*385 n332
*386 n333
*387 n334
*388 n335
*389 n336
*390 n337
*391 n338
*392 n339
*393 n340
*394 n341
*395 n342
*396 n343
*397 n344
*398 n345
*399 n346
*400 n347
*401 n348
*402 n349
*403 n350
*404 n351
*405 n352
*406 n353
*407 n354
*408 n355
*409 n356
*410 n357
*411 n358
*412 n359
*413 n360
*414 n361
*415 n362
*416 n363
*417 n364
*418 n365
*419 n366
*420 n367
*421 n368
*422 n369
*423 n370
*424 n371
*425 n372
*426 n373
*427 n374
*428 n375
*429 n376
*430 n377
*431 n378
*432 n379
*433 n380
*434 n381
*435 n382
*436 n383
*437 n384
*438 n385
*439 n386
*440 n387
*441 n388
*442 n389
*443 n390
*444 n391
*445 n392
*446 n393
*447 n394
*448 n395
*449 n396
*450 n397
*451 n398
*452 n399
*453 n400
*454 n401
*455 n402
*456 n403
*457 n404
*458 n405
*459 n406
*460 n407
*461 n408
*462 n409
*463 n410
*464 n411
*465 n412
*466 n413
*467 n414
*468 n415
*469 n416
*470 n417
*471 n418
*472 n419
*473 n420
*474 n421
*475 n422
*476 n423
*477 n424
*478 n425
*479 n426
*480 n427
*481 n428
*482 n429
*483 n430
*484 n431
*485 n432
*486 n433
*487 n434
*488 n435
*489 n436
*490 n437
*491 n438
*492 n439
*493 n440
*494 n441
*495 n442
*496 n443
*497 n444
*498 n445
*499 n446
*500 n447
*501 n448
*502 n449
*503 n450
*504 n451
*505 n452
*506 n453
*507 n454
*508 n455
*509 n456
*510 n457
*511 n458
*512 n459
*513 n460
*514 n461
*515 n462
*516 n463
*517 n464
*518 n465
*519 n466
*520 n467
*521 n468
*522 n469
*523 n470
*524 n471
*525 n472
*526 n473
*527 n474
*528 n475
*529 n476
*530 n477
*531 n478
*532 n479
*533 n480
*534 n481
*535 n482
*536 n483
*537 n484
*538 n485
*539 n486
*540 n487
*541 n488
*542 n489
*543 n490
*544 n491
*545 n492
*546 n493
*547 n494
*548 n495
*549 n496
*550 n497
*551 n498
*552 n499
*553 n500
*554 n501
*555 n502
*556 n503
*557 n504
*558 n505
*559 n506
*560 n507
*561 n508
*562 n509
*563 n510
*564 n511
*565 n512
*566 n513
*567 n514
*568 n515
*569 n516
*570 n517
*571 n518
*572 n519
*573 n520
*574 n521
*575 n522
*576 n523
*577 n524
*578 n525
*579 n526
*580 n527
*581 n528
*582 n529
*583 n530
*584 n531
*585 n532
*586 n533
*587 n534
*588 n535
*589 n536
*590 n537
*591 n538
*592 n539
*593 n540
*594 n541
*595 n542
*596 n543
*597 n544
*598 n545
*599 n546
*600 n547
*601 n548
*602 n549
*603 n550
*604 n551
*605 n552
*606 n553
*607 n554
*608 n555
*609 n556
*610 n557
*611 n558
*612 n559
*613 n560
*614 n561
*615 n562
*616 n563
*617 n564
*618 n565
*619 n566
*620 n567
*621 n568
*622 n569
*623 n570
*624 n571
*625 n572
*626 n573
*627 n574
*628 n575
*629 n576
*630 n577
*631 n578
*632 n579
*633 n580
*634 n656
*635 n657
*636 n658
*637 n659
*638 n660
*639 n661
*640 n662
*641 n663
*642 n664
*643 n665
*644 n666
*645 n667
*646 n668
*647 n669
*648 n670
*649 n671
*650 n672
*651 n673
*652 n674
*653 n675
*654 n676
*655 n677
*656 n678
*657 n679
*658 n680
*659 n681
*660 n682
*661 n683
*662 n684
*663 n685
*664 n686
*665 n687
*666 n688
*667 n689
*668 n690
*669 n691
*670 n692
*671 n693
*672 n694
*673 n695
*674 n696
*675 n697
*676 n698
*677 n699
*678 n700
*679 n701
*680 n702
*681 n703
*682 n704
*683 n705
*684 n706
*685 n707
*686 n708
*687 n709
*688 n710
*689 n711
*690 n712
*691 n713
*692 n714
*693 n715
*694 n716
*695 n717
*696 n718
*697 n719
*698 n720
*699 n721
*700 n722
*701 n723
*702 n724
*703 n725
*704 n726
*705 n727
*706 n728
*707 n729
*708 n730
*709 n731
*710 n732
*711 n733
*712 n734
*713 n735
*714 n736
*715 n737
*716 n738
*717 n739
*718 n740
*719 n741
*720 n742
*721 n743
*722 n744
*723 n745
*724 n746
*725 n747
*726 n748
*727 n749
*728 n750
*729 n751
*730 n752
*731 add_E2_add_16_n1
*732 mul_E2_OUTPUT_0_
*733 mul_E2_OUTPUT_21_
*734 mul_E2_mult_16_n520
*735 mul_E2_mult_16_n519
*736 mul_E2_mult_16_n518
*737 mul_E2_mult_16_n517
*738 mul_E2_mult_16_n516
*739 mul_E2_mult_16_n515
*740 mul_E2_mult_16_n514
*741 mul_E2_mult_16_n513
*742 mul_E2_mult_16_n512
*743 mul_E2_mult_16_n511
*744 mul_E2_mult_16_n510
*745 mul_E2_mult_16_n509
*746 mul_E2_mult_16_n508
*747 mul_E2_mult_16_n507
*748 mul_E2_mult_16_n506
*749 mul_E2_mult_16_n505
*750 mul_E2_mult_16_n504
*751 mul_E2_mult_16_n503
*752 mul_E2_mult_16_n502
*753 mul_E2_mult_16_n501
*754 mul_E2_mult_16_n500
*755 mul_E2_mult_16_n499
*756 mul_E2_mult_16_n498
*757 mul_E2_mult_16_n497
*758 mul_E2_mult_16_n496
*759 mul_E2_mult_16_n495
*760 mul_E2_mult_16_n494
*761 mul_E2_mult_16_n493
*762 mul_E2_mult_16_n492
*763 mul_E2_mult_16_n491
*764 mul_E2_mult_16_n490
*765 mul_E2_mult_16_n489
*766 mul_E2_mult_16_n488
*767 mul_E2_mult_16_n487
*768 mul_E2_mult_16_n486
*769 mul_E2_mult_16_n485
*770 mul_E2_mult_16_n484
*771 mul_E2_mult_16_n483
*772 mul_E2_mult_16_n482
*773 mul_E2_mult_16_n481
*774 mul_E2_mult_16_n480
*775 mul_E2_mult_16_n479
*776 mul_E2_mult_16_n478
*777 mul_E2_mult_16_n477
*778 mul_E2_mult_16_n476
*779 mul_E2_mult_16_n475
*780 mul_E2_mult_16_n474
*781 mul_E2_mult_16_n473
*782 mul_E2_mult_16_n472
*783 mul_E2_mult_16_n471
*784 mul_E2_mult_16_n470
*785 mul_E2_mult_16_n469
*786 mul_E2_mult_16_n468
*787 mul_E2_mult_16_n467
*788 mul_E2_mult_16_n466
*789 mul_E2_mult_16_n465
*790 mul_E2_mult_16_n464
*791 mul_E2_mult_16_n463
*792 mul_E2_mult_16_n462
*793 mul_E2_mult_16_n461
*794 mul_E2_mult_16_n460
*795 mul_E2_mult_16_n459
*796 mul_E2_mult_16_n458
*797 mul_E2_mult_16_n457
*798 mul_E2_mult_16_n456
*799 mul_E2_mult_16_n455
*800 mul_E2_mult_16_n454
*801 mul_E2_mult_16_n453
*802 mul_E2_mult_16_n452
*803 mul_E2_mult_16_n451
*804 mul_E2_mult_16_n450
*805 mul_E2_mult_16_n449
*806 mul_E2_mult_16_n448
*807 mul_E2_mult_16_n447
*808 mul_E2_mult_16_n446
*809 mul_E2_mult_16_n445
*810 mul_E2_mult_16_n444
*811 mul_E2_mult_16_n443
*812 mul_E2_mult_16_n442
*813 mul_E2_mult_16_n441
*814 mul_E2_mult_16_n440
*815 mul_E2_mult_16_n439
*816 mul_E2_mult_16_n438
*817 mul_E2_mult_16_n437
*818 mul_E2_mult_16_n436
*819 mul_E2_mult_16_n435
*820 mul_E2_mult_16_n434
*821 mul_E2_mult_16_n433
*822 mul_E2_mult_16_n432
*823 mul_E2_mult_16_n431
*824 mul_E2_mult_16_n430
*825 mul_E2_mult_16_n429
*826 mul_E2_mult_16_n428
*827 mul_E2_mult_16_n427
*828 mul_E2_mult_16_n426
*829 mul_E2_mult_16_n425
*830 mul_E2_mult_16_n424
*831 mul_E2_mult_16_n423
*832 mul_E2_mult_16_n422
*833 mul_E2_mult_16_n421
*834 mul_E2_mult_16_n420
*835 mul_E2_mult_16_n418
*836 mul_E2_mult_16_n417
*837 mul_E2_mult_16_n416
*838 mul_E2_mult_16_n415
*839 mul_E2_mult_16_n414
*840 mul_E2_mult_16_n413
*841 mul_E2_mult_16_n412
*842 mul_E2_mult_16_n411
*843 mul_E2_mult_16_n410
*844 mul_E2_mult_16_n409
*845 mul_E2_mult_16_n408
*846 mul_E2_mult_16_n407
*847 mul_E2_mult_16_n406
*848 mul_E2_mult_16_n405
*849 mul_E2_mult_16_n404
*850 mul_E2_mult_16_n403
*851 mul_E2_mult_16_n402
*852 mul_E2_mult_16_n401
*853 mul_E2_mult_16_n400
*854 mul_E2_mult_16_n388
*855 mul_E2_mult_16_n387
*856 mul_E2_mult_16_n386
*857 mul_E2_mult_16_n211
*858 mul_E2_mult_16_n210
*859 mul_E2_mult_16_n209
*860 mul_E2_mult_16_n208
*861 mul_E2_mult_16_n207
*862 mul_E2_mult_16_n206
*863 mul_E2_mult_16_n205
*864 mul_E2_mult_16_n204
*865 mul_E2_mult_16_n201
*866 mul_E2_mult_16_n200
*867 mul_E2_mult_16_n199
*868 mul_E2_mult_16_n198
*869 mul_E2_mult_16_n197
*870 mul_E2_mult_16_n196
*871 mul_E2_mult_16_n195
*872 mul_E2_mult_16_n194
*873 mul_E2_mult_16_n193
*874 mul_E2_mult_16_n191
*875 mul_E2_mult_16_n190
*876 mul_E2_mult_16_n189
*877 mul_E2_mult_16_n188
*878 mul_E2_mult_16_n187
*879 mul_E2_mult_16_n186
*880 mul_E2_mult_16_n185
*881 mul_E2_mult_16_n184
*882 mul_E2_mult_16_n183
*883 mul_E2_mult_16_n182
*884 mul_E2_mult_16_n180
*885 mul_E2_mult_16_n179
*886 mul_E2_mult_16_n178
*887 mul_E2_mult_16_n177
*888 mul_E2_mult_16_n176
*889 mul_E2_mult_16_n175
*890 mul_E2_mult_16_n174
*891 mul_E2_mult_16_n173
*892 mul_E2_mult_16_n172
*893 mul_E2_mult_16_n171
*894 mul_E2_mult_16_n169
*895 mul_E2_mult_16_n168
*896 mul_E2_mult_16_n167
*897 mul_E2_mult_16_n165
*898 mul_E2_mult_16_n164
*899 mul_E2_mult_16_n163
*900 mul_E2_mult_16_n162
*901 mul_E2_mult_16_n161
*902 mul_E2_mult_16_n160
*903 mul_E2_mult_16_n158
*904 mul_E2_mult_16_n156
*905 mul_E2_mult_16_n155
*906 mul_E2_mult_16_n154
*907 mul_E2_mult_16_n153
*908 mul_E2_mult_16_n152
*909 mul_E2_mult_16_n151
*910 mul_E2_mult_16_n150
*911 mul_E2_mult_16_n149
*912 mul_E2_mult_16_n145
*913 mul_E2_mult_16_n144
*914 mul_E2_mult_16_n143
*915 mul_E2_mult_16_n142
*916 mul_E2_mult_16_n123
*917 mul_E2_mult_16_n122
*918 mul_E2_mult_16_n121
*919 mul_E2_mult_16_n120
*920 mul_E2_mult_16_n119
*921 mul_E2_mult_16_n118
*922 mul_E2_mult_16_n117
*923 mul_E2_mult_16_n116
*924 mul_E2_mult_16_n115
*925 mul_E2_mult_16_n114
*926 mul_E2_mult_16_n113
*927 mul_E2_mult_16_n112
*928 mul_E2_mult_16_n111
*929 mul_E2_mult_16_n110
*930 mul_E2_mult_16_n109
*931 mul_E2_mult_16_n108
*932 mul_E2_mult_16_n107
*933 mul_E2_mult_16_n106
*934 mul_E2_mult_16_n105
*935 mul_E2_mult_16_n104
*936 mul_E2_mult_16_n103
*937 mul_E2_mult_16_n102
*938 mul_E2_mult_16_n101
*939 mul_E2_mult_16_n100
*940 mul_E2_mult_16_n99
*941 mul_E2_mult_16_n98
*942 mul_E2_mult_16_n97
*943 mul_E2_mult_16_n96
*944 mul_E2_mult_16_n95
*945 mul_E2_mult_16_n94
*946 mul_E2_mult_16_n93
*947 mul_E2_mult_16_n92
*948 mul_E2_mult_16_n91
*949 mul_E2_mult_16_n90
*950 mul_E2_mult_16_n89
*951 mul_E2_mult_16_n88
*952 mul_E2_mult_16_n87
*953 mul_E2_mult_16_n86
*954 mul_E2_mult_16_n85
*955 mul_E2_mult_16_n84
*956 mul_E2_mult_16_n83
*957 mul_E2_mult_16_n82
*958 mul_E2_mult_16_n81
*959 mul_E2_mult_16_n80
*960 mul_E2_mult_16_n79
*961 mul_E2_mult_16_n78
*962 mul_E2_mult_16_n77
*963 mul_E2_mult_16_n76
*964 mul_E2_mult_16_n75
*965 mul_E2_mult_16_n74
*966 mul_E2_mult_16_n72
*967 mul_E2_mult_16_n71
*968 mul_E2_mult_16_n70
*969 mul_E2_mult_16_n69
*970 mul_E2_mult_16_n68
*971 mul_E2_mult_16_n67
*972 mul_E2_mult_16_n66
*973 mul_E2_mult_16_n65
*974 mul_E2_mult_16_n64
*975 mul_E2_mult_16_n63
*976 mul_E2_mult_16_n62
*977 mul_E2_mult_16_n61
*978 mul_E2_mult_16_n60
*979 mul_E2_mult_16_n59
*980 mul_E2_mult_16_n58
*981 mul_E2_mult_16_n57
*982 mul_E2_mult_16_n56
*983 mul_E2_mult_16_n54
*984 mul_E2_mult_16_n53
*985 mul_E2_mult_16_n52
*986 mul_E2_mult_16_n51
*987 mul_E2_mult_16_n50
*988 mul_E2_mult_16_n49
*989 mul_E2_mult_16_n48
*990 mul_E2_mult_16_n47
*991 mul_E2_mult_16_n46
*992 mul_E2_mult_16_n45
*993 mul_E2_mult_16_n44
*994 mul_E2_mult_16_n43
*995 mul_E2_mult_16_n42
*996 mul_E2_mult_16_n40
*997 mul_E2_mult_16_n39
*998 mul_E2_mult_16_n38
*999 mul_E2_mult_16_n37
*1000 mul_E2_mult_16_n36
*1001 mul_E2_mult_16_n35
*1002 mul_E2_mult_16_n34
*1003 mul_E2_mult_16_n33
*1004 mul_E2_mult_16_n32
*1005 mul_E2_mult_16_n30
*1006 mul_E2_mult_16_n29
*1007 mul_E2_mult_16_n28
*1008 mul_E2_mult_16_n27
*1009 mul_E2_mult_16_n26
*1010 mul_E2_mult_16_n25
*1011 mul_E2_mult_16_n14
*1012 mul_E2_mult_16_n13
*1013 mul_E2_mult_16_n12
*1014 mul_E2_mult_16_n11
*1015 mul_E2_mult_16_n10
*1016 mul_E2_mult_16_n9
*1017 mul_E2_mult_16_n8
*1018 mul_E2_mult_16_n7
*1019 mul_E2_mult_16_n6
*1020 mul_E2_mult_16_n5
*1021 mul_E2_mult_16_n4
*1022 mul_E3_OUTPUT_0_
*1023 mul_E3_OUTPUT_21_
*1024 mul_E3_mult_16_n519
*1025 mul_E3_mult_16_n517
*1026 mul_E3_mult_16_n515
*1027 mul_E3_mult_16_n514
*1028 mul_E3_mult_16_n513
*1029 mul_E3_mult_16_n511
*1030 mul_E3_mult_16_n510
*1031 mul_E3_mult_16_n509
*1032 mul_E3_mult_16_n508
*1033 mul_E3_mult_16_n507
*1034 mul_E3_mult_16_n506
*1035 mul_E3_mult_16_n505
*1036 mul_E3_mult_16_n504
*1037 mul_E3_mult_16_n503
*1038 mul_E3_mult_16_n502
*1039 mul_E3_mult_16_n501
*1040 mul_E3_mult_16_n500
*1041 mul_E3_mult_16_n499
*1042 mul_E3_mult_16_n498
*1043 mul_E3_mult_16_n497
*1044 mul_E3_mult_16_n496
*1045 mul_E3_mult_16_n495
*1046 mul_E3_mult_16_n494
*1047 mul_E3_mult_16_n493
*1048 mul_E3_mult_16_n492
*1049 mul_E3_mult_16_n491
*1050 mul_E3_mult_16_n490
*1051 mul_E3_mult_16_n489
*1052 mul_E3_mult_16_n488
*1053 mul_E3_mult_16_n487
*1054 mul_E3_mult_16_n486
*1055 mul_E3_mult_16_n485
*1056 mul_E3_mult_16_n484
*1057 mul_E3_mult_16_n483
*1058 mul_E3_mult_16_n482
*1059 mul_E3_mult_16_n481
*1060 mul_E3_mult_16_n480
*1061 mul_E3_mult_16_n479
*1062 mul_E3_mult_16_n478
*1063 mul_E3_mult_16_n477
*1064 mul_E3_mult_16_n476
*1065 mul_E3_mult_16_n475
*1066 mul_E3_mult_16_n474
*1067 mul_E3_mult_16_n473
*1068 mul_E3_mult_16_n472
*1069 mul_E3_mult_16_n471
*1070 mul_E3_mult_16_n470
*1071 mul_E3_mult_16_n469
*1072 mul_E3_mult_16_n468
*1073 mul_E3_mult_16_n467
*1074 mul_E3_mult_16_n466
*1075 mul_E3_mult_16_n465
*1076 mul_E3_mult_16_n464
*1077 mul_E3_mult_16_n463
*1078 mul_E3_mult_16_n462
*1079 mul_E3_mult_16_n461
*1080 mul_E3_mult_16_n460
*1081 mul_E3_mult_16_n459
*1082 mul_E3_mult_16_n458
*1083 mul_E3_mult_16_n457
*1084 mul_E3_mult_16_n456
*1085 mul_E3_mult_16_n455
*1086 mul_E3_mult_16_n454
*1087 mul_E3_mult_16_n453
*1088 mul_E3_mult_16_n452
*1089 mul_E3_mult_16_n451
*1090 mul_E3_mult_16_n450
*1091 mul_E3_mult_16_n449
*1092 mul_E3_mult_16_n448
*1093 mul_E3_mult_16_n447
*1094 mul_E3_mult_16_n446
*1095 mul_E3_mult_16_n445
*1096 mul_E3_mult_16_n444
*1097 mul_E3_mult_16_n443
*1098 mul_E3_mult_16_n442
*1099 mul_E3_mult_16_n441
*1100 mul_E3_mult_16_n440
*1101 mul_E3_mult_16_n439
*1102 mul_E3_mult_16_n438
*1103 mul_E3_mult_16_n437
*1104 mul_E3_mult_16_n436
*1105 mul_E3_mult_16_n435
*1106 mul_E3_mult_16_n434
*1107 mul_E3_mult_16_n433
*1108 mul_E3_mult_16_n432
*1109 mul_E3_mult_16_n431
*1110 mul_E3_mult_16_n430
*1111 mul_E3_mult_16_n429
*1112 mul_E3_mult_16_n428
*1113 mul_E3_mult_16_n427
*1114 mul_E3_mult_16_n426
*1115 mul_E3_mult_16_n425
*1116 mul_E3_mult_16_n424
*1117 mul_E3_mult_16_n423
*1118 mul_E3_mult_16_n422
*1119 mul_E3_mult_16_n420
*1120 mul_E3_mult_16_n419
*1121 mul_E3_mult_16_n417
*1122 mul_E3_mult_16_n416
*1123 mul_E3_mult_16_n415
*1124 mul_E3_mult_16_n414
*1125 mul_E3_mult_16_n413
*1126 mul_E3_mult_16_n412
*1127 mul_E3_mult_16_n411
*1128 mul_E3_mult_16_n410
*1129 mul_E3_mult_16_n409
*1130 mul_E3_mult_16_n408
*1131 mul_E3_mult_16_n407
*1132 mul_E3_mult_16_n406
*1133 mul_E3_mult_16_n405
*1134 mul_E3_mult_16_n404
*1135 mul_E3_mult_16_n403
*1136 mul_E3_mult_16_n402
*1137 mul_E3_mult_16_n401
*1138 mul_E3_mult_16_n400
*1139 mul_E3_mult_16_n399
*1140 mul_E3_mult_16_n388
*1141 mul_E3_mult_16_n387
*1142 mul_E3_mult_16_n386
*1143 mul_E3_mult_16_n211
*1144 mul_E3_mult_16_n210
*1145 mul_E3_mult_16_n209
*1146 mul_E3_mult_16_n208
*1147 mul_E3_mult_16_n207
*1148 mul_E3_mult_16_n206
*1149 mul_E3_mult_16_n205
*1150 mul_E3_mult_16_n204
*1151 mul_E3_mult_16_n201
*1152 mul_E3_mult_16_n200
*1153 mul_E3_mult_16_n199
*1154 mul_E3_mult_16_n198
*1155 mul_E3_mult_16_n197
*1156 mul_E3_mult_16_n196
*1157 mul_E3_mult_16_n195
*1158 mul_E3_mult_16_n194
*1159 mul_E3_mult_16_n193
*1160 mul_E3_mult_16_n191
*1161 mul_E3_mult_16_n190
*1162 mul_E3_mult_16_n189
*1163 mul_E3_mult_16_n188
*1164 mul_E3_mult_16_n187
*1165 mul_E3_mult_16_n186
*1166 mul_E3_mult_16_n185
*1167 mul_E3_mult_16_n184
*1168 mul_E3_mult_16_n183
*1169 mul_E3_mult_16_n182
*1170 mul_E3_mult_16_n180
*1171 mul_E3_mult_16_n179
*1172 mul_E3_mult_16_n178
*1173 mul_E3_mult_16_n177
*1174 mul_E3_mult_16_n176
*1175 mul_E3_mult_16_n175
*1176 mul_E3_mult_16_n174
*1177 mul_E3_mult_16_n173
*1178 mul_E3_mult_16_n172
*1179 mul_E3_mult_16_n171
*1180 mul_E3_mult_16_n169
*1181 mul_E3_mult_16_n168
*1182 mul_E3_mult_16_n167
*1183 mul_E3_mult_16_n165
*1184 mul_E3_mult_16_n164
*1185 mul_E3_mult_16_n163
*1186 mul_E3_mult_16_n162
*1187 mul_E3_mult_16_n161
*1188 mul_E3_mult_16_n160
*1189 mul_E3_mult_16_n158
*1190 mul_E3_mult_16_n156
*1191 mul_E3_mult_16_n155
*1192 mul_E3_mult_16_n154
*1193 mul_E3_mult_16_n153
*1194 mul_E3_mult_16_n152
*1195 mul_E3_mult_16_n151
*1196 mul_E3_mult_16_n150
*1197 mul_E3_mult_16_n149
*1198 mul_E3_mult_16_n145
*1199 mul_E3_mult_16_n144
*1200 mul_E3_mult_16_n143
*1201 mul_E3_mult_16_n142
*1202 mul_E3_mult_16_n123
*1203 mul_E3_mult_16_n122
*1204 mul_E3_mult_16_n121
*1205 mul_E3_mult_16_n120
*1206 mul_E3_mult_16_n119
*1207 mul_E3_mult_16_n118
*1208 mul_E3_mult_16_n117
*1209 mul_E3_mult_16_n116
*1210 mul_E3_mult_16_n115
*1211 mul_E3_mult_16_n114
*1212 mul_E3_mult_16_n113
*1213 mul_E3_mult_16_n112
*1214 mul_E3_mult_16_n111
*1215 mul_E3_mult_16_n110
*1216 mul_E3_mult_16_n109
*1217 mul_E3_mult_16_n108
*1218 mul_E3_mult_16_n107
*1219 mul_E3_mult_16_n106
*1220 mul_E3_mult_16_n105
*1221 mul_E3_mult_16_n104
*1222 mul_E3_mult_16_n103
*1223 mul_E3_mult_16_n102
*1224 mul_E3_mult_16_n101
*1225 mul_E3_mult_16_n100
*1226 mul_E3_mult_16_n99
*1227 mul_E3_mult_16_n98
*1228 mul_E3_mult_16_n97
*1229 mul_E3_mult_16_n96
*1230 mul_E3_mult_16_n95
*1231 mul_E3_mult_16_n94
*1232 mul_E3_mult_16_n93
*1233 mul_E3_mult_16_n92
*1234 mul_E3_mult_16_n91
*1235 mul_E3_mult_16_n90
*1236 mul_E3_mult_16_n89
*1237 mul_E3_mult_16_n88
*1238 mul_E3_mult_16_n87
*1239 mul_E3_mult_16_n86
*1240 mul_E3_mult_16_n85
*1241 mul_E3_mult_16_n84
*1242 mul_E3_mult_16_n83
*1243 mul_E3_mult_16_n82
*1244 mul_E3_mult_16_n81
*1245 mul_E3_mult_16_n80
*1246 mul_E3_mult_16_n79
*1247 mul_E3_mult_16_n78
*1248 mul_E3_mult_16_n77
*1249 mul_E3_mult_16_n76
*1250 mul_E3_mult_16_n75
*1251 mul_E3_mult_16_n74
*1252 mul_E3_mult_16_n72
*1253 mul_E3_mult_16_n71
*1254 mul_E3_mult_16_n70
*1255 mul_E3_mult_16_n69
*1256 mul_E3_mult_16_n68
*1257 mul_E3_mult_16_n67
*1258 mul_E3_mult_16_n66
*1259 mul_E3_mult_16_n65
*1260 mul_E3_mult_16_n64
*1261 mul_E3_mult_16_n63
*1262 mul_E3_mult_16_n62
*1263 mul_E3_mult_16_n61
*1264 mul_E3_mult_16_n60
*1265 mul_E3_mult_16_n59
*1266 mul_E3_mult_16_n58
*1267 mul_E3_mult_16_n57
*1268 mul_E3_mult_16_n56
*1269 mul_E3_mult_16_n54
*1270 mul_E3_mult_16_n53
*1271 mul_E3_mult_16_n52
*1272 mul_E3_mult_16_n51
*1273 mul_E3_mult_16_n50
*1274 mul_E3_mult_16_n49
*1275 mul_E3_mult_16_n48
*1276 mul_E3_mult_16_n47
*1277 mul_E3_mult_16_n46
*1278 mul_E3_mult_16_n45
*1279 mul_E3_mult_16_n44
*1280 mul_E3_mult_16_n43
*1281 mul_E3_mult_16_n42
*1282 mul_E3_mult_16_n40
*1283 mul_E3_mult_16_n39
*1284 mul_E3_mult_16_n38
*1285 mul_E3_mult_16_n37
*1286 mul_E3_mult_16_n36
*1287 mul_E3_mult_16_n35
*1288 mul_E3_mult_16_n34
*1289 mul_E3_mult_16_n33
*1290 mul_E3_mult_16_n32
*1291 mul_E3_mult_16_n30
*1292 mul_E3_mult_16_n29
*1293 mul_E3_mult_16_n28
*1294 mul_E3_mult_16_n27
*1295 mul_E3_mult_16_n26
*1296 mul_E3_mult_16_n25
*1297 mul_E3_mult_16_n14
*1298 mul_E3_mult_16_n13
*1299 mul_E3_mult_16_n12
*1300 mul_E3_mult_16_n11
*1301 mul_E3_mult_16_n10
*1302 mul_E3_mult_16_n9
*1303 mul_E3_mult_16_n8
*1304 mul_E3_mult_16_n7
*1305 mul_E3_mult_16_n6
*1306 mul_E3_mult_16_n5
*1307 mul_E3_mult_16_n4
*1308 add_F1_add_16_n2
*1309 add_F2_add_16_n2
*1310 mul_F0_OUTPUT_0_
*1311 mul_F0_OUTPUT_21_
*1312 mul_F0_mult_16_n520
*1313 mul_F0_mult_16_n519
*1314 mul_F0_mult_16_n518
*1315 mul_F0_mult_16_n517
*1316 mul_F0_mult_16_n516
*1317 mul_F0_mult_16_n515
*1318 mul_F0_mult_16_n514
*1319 mul_F0_mult_16_n513
*1320 mul_F0_mult_16_n512
*1321 mul_F0_mult_16_n511
*1322 mul_F0_mult_16_n510
*1323 mul_F0_mult_16_n509
*1324 mul_F0_mult_16_n508
*1325 mul_F0_mult_16_n507
*1326 mul_F0_mult_16_n506
*1327 mul_F0_mult_16_n505
*1328 mul_F0_mult_16_n504
*1329 mul_F0_mult_16_n503
*1330 mul_F0_mult_16_n502
*1331 mul_F0_mult_16_n501
*1332 mul_F0_mult_16_n500
*1333 mul_F0_mult_16_n499
*1334 mul_F0_mult_16_n498
*1335 mul_F0_mult_16_n497
*1336 mul_F0_mult_16_n496
*1337 mul_F0_mult_16_n495
*1338 mul_F0_mult_16_n494
*1339 mul_F0_mult_16_n493
*1340 mul_F0_mult_16_n492
*1341 mul_F0_mult_16_n491
*1342 mul_F0_mult_16_n490
*1343 mul_F0_mult_16_n489
*1344 mul_F0_mult_16_n488
*1345 mul_F0_mult_16_n487
*1346 mul_F0_mult_16_n486
*1347 mul_F0_mult_16_n485
*1348 mul_F0_mult_16_n484
*1349 mul_F0_mult_16_n483
*1350 mul_F0_mult_16_n482
*1351 mul_F0_mult_16_n481
*1352 mul_F0_mult_16_n480
*1353 mul_F0_mult_16_n479
*1354 mul_F0_mult_16_n478
*1355 mul_F0_mult_16_n477
*1356 mul_F0_mult_16_n476
*1357 mul_F0_mult_16_n475
*1358 mul_F0_mult_16_n474
*1359 mul_F0_mult_16_n473
*1360 mul_F0_mult_16_n472
*1361 mul_F0_mult_16_n471
*1362 mul_F0_mult_16_n470
*1363 mul_F0_mult_16_n469
*1364 mul_F0_mult_16_n468
*1365 mul_F0_mult_16_n467
*1366 mul_F0_mult_16_n466
*1367 mul_F0_mult_16_n465
*1368 mul_F0_mult_16_n464
*1369 mul_F0_mult_16_n463
*1370 mul_F0_mult_16_n462
*1371 mul_F0_mult_16_n461
*1372 mul_F0_mult_16_n460
*1373 mul_F0_mult_16_n459
*1374 mul_F0_mult_16_n458
*1375 mul_F0_mult_16_n457
*1376 mul_F0_mult_16_n456
*1377 mul_F0_mult_16_n455
*1378 mul_F0_mult_16_n454
*1379 mul_F0_mult_16_n453
*1380 mul_F0_mult_16_n452
*1381 mul_F0_mult_16_n451
*1382 mul_F0_mult_16_n450
*1383 mul_F0_mult_16_n449
*1384 mul_F0_mult_16_n448
*1385 mul_F0_mult_16_n447
*1386 mul_F0_mult_16_n446
*1387 mul_F0_mult_16_n445
*1388 mul_F0_mult_16_n444
*1389 mul_F0_mult_16_n443
*1390 mul_F0_mult_16_n442
*1391 mul_F0_mult_16_n441
*1392 mul_F0_mult_16_n440
*1393 mul_F0_mult_16_n439
*1394 mul_F0_mult_16_n438
*1395 mul_F0_mult_16_n437
*1396 mul_F0_mult_16_n436
*1397 mul_F0_mult_16_n435
*1398 mul_F0_mult_16_n434
*1399 mul_F0_mult_16_n433
*1400 mul_F0_mult_16_n432
*1401 mul_F0_mult_16_n431
*1402 mul_F0_mult_16_n430
*1403 mul_F0_mult_16_n429
*1404 mul_F0_mult_16_n428
*1405 mul_F0_mult_16_n427
*1406 mul_F0_mult_16_n426
*1407 mul_F0_mult_16_n425
*1408 mul_F0_mult_16_n424
*1409 mul_F0_mult_16_n423
*1410 mul_F0_mult_16_n422
*1411 mul_F0_mult_16_n421
*1412 mul_F0_mult_16_n420
*1413 mul_F0_mult_16_n418
*1414 mul_F0_mult_16_n417
*1415 mul_F0_mult_16_n416
*1416 mul_F0_mult_16_n415
*1417 mul_F0_mult_16_n414
*1418 mul_F0_mult_16_n413
*1419 mul_F0_mult_16_n412
*1420 mul_F0_mult_16_n411
*1421 mul_F0_mult_16_n410
*1422 mul_F0_mult_16_n409
*1423 mul_F0_mult_16_n408
*1424 mul_F0_mult_16_n407
*1425 mul_F0_mult_16_n406
*1426 mul_F0_mult_16_n405
*1427 mul_F0_mult_16_n404
*1428 mul_F0_mult_16_n403
*1429 mul_F0_mult_16_n402
*1430 mul_F0_mult_16_n401
*1431 mul_F0_mult_16_n400
*1432 mul_F0_mult_16_n388
*1433 mul_F0_mult_16_n387
*1434 mul_F0_mult_16_n386
*1435 mul_F0_mult_16_n211
*1436 mul_F0_mult_16_n210
*1437 mul_F0_mult_16_n209
*1438 mul_F0_mult_16_n208
*1439 mul_F0_mult_16_n207
*1440 mul_F0_mult_16_n206
*1441 mul_F0_mult_16_n205
*1442 mul_F0_mult_16_n204
*1443 mul_F0_mult_16_n201
*1444 mul_F0_mult_16_n200
*1445 mul_F0_mult_16_n199
*1446 mul_F0_mult_16_n198
*1447 mul_F0_mult_16_n197
*1448 mul_F0_mult_16_n196
*1449 mul_F0_mult_16_n195
*1450 mul_F0_mult_16_n194
*1451 mul_F0_mult_16_n193
*1452 mul_F0_mult_16_n191
*1453 mul_F0_mult_16_n190
*1454 mul_F0_mult_16_n189
*1455 mul_F0_mult_16_n188
*1456 mul_F0_mult_16_n187
*1457 mul_F0_mult_16_n186
*1458 mul_F0_mult_16_n185
*1459 mul_F0_mult_16_n184
*1460 mul_F0_mult_16_n183
*1461 mul_F0_mult_16_n182
*1462 mul_F0_mult_16_n180
*1463 mul_F0_mult_16_n179
*1464 mul_F0_mult_16_n178
*1465 mul_F0_mult_16_n177
*1466 mul_F0_mult_16_n176
*1467 mul_F0_mult_16_n175
*1468 mul_F0_mult_16_n174
*1469 mul_F0_mult_16_n173
*1470 mul_F0_mult_16_n172
*1471 mul_F0_mult_16_n171
*1472 mul_F0_mult_16_n169
*1473 mul_F0_mult_16_n168
*1474 mul_F0_mult_16_n167
*1475 mul_F0_mult_16_n165
*1476 mul_F0_mult_16_n164
*1477 mul_F0_mult_16_n163
*1478 mul_F0_mult_16_n162
*1479 mul_F0_mult_16_n161
*1480 mul_F0_mult_16_n160
*1481 mul_F0_mult_16_n158
*1482 mul_F0_mult_16_n156
*1483 mul_F0_mult_16_n155
*1484 mul_F0_mult_16_n154
*1485 mul_F0_mult_16_n153
*1486 mul_F0_mult_16_n152
*1487 mul_F0_mult_16_n151
*1488 mul_F0_mult_16_n150
*1489 mul_F0_mult_16_n149
*1490 mul_F0_mult_16_n145
*1491 mul_F0_mult_16_n144
*1492 mul_F0_mult_16_n143
*1493 mul_F0_mult_16_n142
*1494 mul_F0_mult_16_n123
*1495 mul_F0_mult_16_n122
*1496 mul_F0_mult_16_n121
*1497 mul_F0_mult_16_n120
*1498 mul_F0_mult_16_n119
*1499 mul_F0_mult_16_n118
*1500 mul_F0_mult_16_n117
*1501 mul_F0_mult_16_n116
*1502 mul_F0_mult_16_n115
*1503 mul_F0_mult_16_n114
*1504 mul_F0_mult_16_n113
*1505 mul_F0_mult_16_n112
*1506 mul_F0_mult_16_n111
*1507 mul_F0_mult_16_n110
*1508 mul_F0_mult_16_n109
*1509 mul_F0_mult_16_n108
*1510 mul_F0_mult_16_n107
*1511 mul_F0_mult_16_n106
*1512 mul_F0_mult_16_n105
*1513 mul_F0_mult_16_n104
*1514 mul_F0_mult_16_n103
*1515 mul_F0_mult_16_n102
*1516 mul_F0_mult_16_n101
*1517 mul_F0_mult_16_n100
*1518 mul_F0_mult_16_n99
*1519 mul_F0_mult_16_n98
*1520 mul_F0_mult_16_n97
*1521 mul_F0_mult_16_n96
*1522 mul_F0_mult_16_n95
*1523 mul_F0_mult_16_n94
*1524 mul_F0_mult_16_n93
*1525 mul_F0_mult_16_n92
*1526 mul_F0_mult_16_n91
*1527 mul_F0_mult_16_n90
*1528 mul_F0_mult_16_n89
*1529 mul_F0_mult_16_n88
*1530 mul_F0_mult_16_n87
*1531 mul_F0_mult_16_n86
*1532 mul_F0_mult_16_n85
*1533 mul_F0_mult_16_n84
*1534 mul_F0_mult_16_n83
*1535 mul_F0_mult_16_n82
*1536 mul_F0_mult_16_n81
*1537 mul_F0_mult_16_n80
*1538 mul_F0_mult_16_n79
*1539 mul_F0_mult_16_n78
*1540 mul_F0_mult_16_n77
*1541 mul_F0_mult_16_n76
*1542 mul_F0_mult_16_n75
*1543 mul_F0_mult_16_n74
*1544 mul_F0_mult_16_n72
*1545 mul_F0_mult_16_n71
*1546 mul_F0_mult_16_n70
*1547 mul_F0_mult_16_n69
*1548 mul_F0_mult_16_n68
*1549 mul_F0_mult_16_n67
*1550 mul_F0_mult_16_n66
*1551 mul_F0_mult_16_n65
*1552 mul_F0_mult_16_n64
*1553 mul_F0_mult_16_n63
*1554 mul_F0_mult_16_n62
*1555 mul_F0_mult_16_n61
*1556 mul_F0_mult_16_n60
*1557 mul_F0_mult_16_n59
*1558 mul_F0_mult_16_n58
*1559 mul_F0_mult_16_n57
*1560 mul_F0_mult_16_n56
*1561 mul_F0_mult_16_n54
*1562 mul_F0_mult_16_n53
*1563 mul_F0_mult_16_n52
*1564 mul_F0_mult_16_n51
*1565 mul_F0_mult_16_n50
*1566 mul_F0_mult_16_n49
*1567 mul_F0_mult_16_n48
*1568 mul_F0_mult_16_n47
*1569 mul_F0_mult_16_n46
*1570 mul_F0_mult_16_n45
*1571 mul_F0_mult_16_n44
*1572 mul_F0_mult_16_n43
*1573 mul_F0_mult_16_n42
*1574 mul_F0_mult_16_n40
*1575 mul_F0_mult_16_n39
*1576 mul_F0_mult_16_n38
*1577 mul_F0_mult_16_n37
*1578 mul_F0_mult_16_n36
*1579 mul_F0_mult_16_n35
*1580 mul_F0_mult_16_n34
*1581 mul_F0_mult_16_n33
*1582 mul_F0_mult_16_n32
*1583 mul_F0_mult_16_n30
*1584 mul_F0_mult_16_n29
*1585 mul_F0_mult_16_n28
*1586 mul_F0_mult_16_n27